Circuit: * C:\Users\HPz420\Documents\GitHub\land-boards\RasPiPico\PicoMite_MMBASIC\PicoMite_VGA\Audio_Trap\Audio_Trap_01.asc


Date: Sun Aug 28 10:50:12 2022
Total elapsed time: 0.024 seconds.

tnom = 27
temp = 27
method = trap
totiter = 0
traniter = 0
tranpoints = 0
accept = 0
rejected = 0
matrix size = 5
fillins = 1
solver = Normal

