Circuit: * C:\Users\HPz420\Documents\GitHub\land-boards\RasPiPico\PicoMite_MMBASIC\PicoMite_VGA\Audio_Trap\Audio_Trap_03.asc


Date: Wed Aug 31 16:37:29 2022
Total elapsed time: 0.021 seconds.

tnom = 27
temp = 27
method = trap
totiter = 0
traniter = 0
tranpoints = 0
accept = 0
rejected = 0
matrix size = 4
fillins = 0
solver = Normal

