Circuit: * C:\Users\HPz420\Documents\GitHub\land-boards\RasPiPico\PicoMite_MMBASIC\PicoMite_VGA\Audio_Trap\Draft1.asc

Limiting rise time of source v2 to 1e-006
Limiting fall time of source v2 to 1e-006
WARNING: Node NC_02 is floating.

Direct Newton iteration for .op point succeeded.

Date: Wed Nov 02 16:46:48 2022
Total elapsed time: 0.096 seconds.

tnom = 27
temp = 27
method = modified trap
totiter = 4345
traniter = 4325
tranpoints = 1669
accept = 1483
rejected = 186
matrix size = 19
fillins = 2
solver = Normal
Matrix Compiler1: 1.40 KB object code size  0.6/0.2/[0.2]
Matrix Compiler2: off  [0.1]/0.3/0.2

